!- Windows Line endings 

Version,
    8.9;                      !- Version Identifier

SimulationControl,
    Yes,                      !- Do Zone Sizing Calculation
    No,                       !- Do System Sizing Calculation
    No,                       !- Do Plant Sizing Calculation
    Yes,                      !- Run Simulation for Sizing Periods
    Yes;                      !- Run Simulation for Weather File Run Periods

Building,
    Building 1,               !- Name
    ,                         !- North Axis
    ,                         !- Terrain
    ,                         !- Loads Convergence Tolerance Value
    ,                         !- Temperature Convergence Tolerance Value
    ,                         !- Solar Distribution
    ,                         !- Maximum Number of Warmup Days
    ;                         !- Minimum Number of Warmup Days

ShadowCalculation,
    AverageOverDaysInFrequency,    !- Calculation Method
    20,                       !- Calculation Frequency
    15000;                    !- Maximum Figures in Shadow Overlap Calculations

HeatBalanceAlgorithm,
    ConductionTransferFunction,    !- Algorithm
    200.0;                    !- Surface Temperature Upper Limit

Timestep,
    6;                        !- Number of Timesteps per Hour

Site:Location,
    MINNEAPOLIS_MN_USADesign_Conditions,    !- Name
    44.88,                    !- Latitude
    -93.22,                   !- Longitude
    -6.00,                    !- Time Zone
    255.00;                   !- Elevation

SizingPeriod:DesignDay,
    MINNEAPOLISAnnClg.4CondnsDBMWB,    !- Name
    7,                        !- Month
    21,                       !- Day of Month
    SummerDesignDay,          !- Day Type
    32.8,                     !- Maximum DryBulb Temperature
    9.9,                      !- Daily DryBulb Temperature Range
    DefaultMultipliers,       !- DryBulb Temperature Range Modifier Type
    ,                         !- DryBulb Temperature Range Modifier Day Schedule Name
    Wetbulb,                  !- Humidity Condition Type
    23,                       !- Wetbulb or DewPoint at Maximum DryBulb
    ,                         !- Humidity Condition Day Schedule Name
    ,                         !- Humidity Ratio at Maximum DryBulb
    ,                         !- Enthalpy at Maximum DryBulb
    ,                         !- Daily WetBulb Temperature Range
    98299.,                   !- Barometric Pressure
    6,                        !- Wind Speed
    180,                      !- Wind Direction
    No,                       !- Rain Indicator
    No,                       !- Snow Indicator
    No,                       !- Daylight Saving Time Indicator
    ASHRAETau,                !- Solar Model Indicator
    ,                         !- Beam Solar Day Schedule Name
    ,                         !- Diffuse Solar Day Schedule Name
    0.416,                    !- ASHRAE Clear Sky Optical Depth for Beam Irradiance taub
    2.18;                     !- ASHRAE Clear Sky Optical Depth for Diffuse Irradiance taud

SizingPeriod:DesignDay,
    MINNEAPOLISAnnClg.4CondnsDPMDB,    !- Name
    7,                        !- Month
    21,                       !- Day of Month
    SummerDesignDay,          !- Day Type
    28.6,                     !- Maximum DryBulb Temperature
    9.9,                      !- Daily DryBulb Temperature Range
    DefaultMultipliers,       !- DryBulb Temperature Range Modifier Type
    ,                         !- DryBulb Temperature Range Modifier Day Schedule Name
    Dewpoint,                 !- Humidity Condition Type
    23.1,                     !- Wetbulb or DewPoint at Maximum DryBulb
    ,                         !- Humidity Condition Day Schedule Name
    ,                         !- Humidity Ratio at Maximum DryBulb
    ,                         !- Enthalpy at Maximum DryBulb
    ,                         !- Daily WetBulb Temperature Range
    98299.,                   !- Barometric Pressure
    6,                        !- Wind Speed
    180,                      !- Wind Direction
    No,                       !- Rain Indicator
    No,                       !- Snow Indicator
    No,                       !- Daylight Saving Time Indicator
    ASHRAETau,                !- Solar Model Indicator
    ,                         !- Beam Solar Day Schedule Name
    ,                         !- Diffuse Solar Day Schedule Name
    0.416,                    !- ASHRAE Clear Sky Optical Depth for Beam Irradiance taub
    2.18;                     !- ASHRAE Clear Sky Optical Depth for Diffuse Irradiance taud

SizingPeriod:DesignDay,
    MINNEAPOLISAnnClg.4CondnsEnthMDB,    !- Name
    7,                        !- Month
    21,                       !- Day of Month
    SummerDesignDay,          !- Day Type
    30.9,                     !- Maximum DryBulb Temperature
    9.9,                      !- Daily DryBulb Temperature Range
    DefaultMultipliers,       !- DryBulb Temperature Range Modifier Type
    ,                         !- DryBulb Temperature Range Modifier Day Schedule Name
    Enthalpy,                 !- Humidity Condition Type
    ,                         !- Wetbulb or DewPoint at Maximum DryBulb
    ,                         !- Humidity Condition Day Schedule Name
    ,                         !- Humidity Ratio at Maximum DryBulb
    77300.0,                  !- Enthalpy at Maximum DryBulb
    ,                         !- Daily WetBulb Temperature Range
    98299.,                   !- Barometric Pressure
    6,                        !- Wind Speed
    180,                      !- Wind Direction
    No,                       !- Rain Indicator
    No,                       !- Snow Indicator
    No,                       !- Daylight Saving Time Indicator
    ASHRAETau,                !- Solar Model Indicator
    ,                         !- Beam Solar Day Schedule Name
    ,                         !- Diffuse Solar Day Schedule Name
    0.416,                    !- ASHRAE Clear Sky Optical Depth for Beam Irradiance taub
    2.18;                     !- ASHRAE Clear Sky Optical Depth for Diffuse Irradiance taud

SizingPeriod:DesignDay,
    MINNEAPOLISAnnClg.4CondnsWBMDB,    !- Name
    7,                        !- Month
    21,                       !- Day of Month
    SummerDesignDay,          !- Day Type
    30.8,                     !- Maximum DryBulb Temperature
    9.9,                      !- Daily DryBulb Temperature Range
    DefaultMultipliers,       !- DryBulb Temperature Range Modifier Type
    ,                         !- DryBulb Temperature Range Modifier Day Schedule Name
    Wetbulb,                  !- Humidity Condition Type
    25,                       !- Wetbulb or DewPoint at Maximum DryBulb
    ,                         !- Humidity Condition Day Schedule Name
    ,                         !- Humidity Ratio at Maximum DryBulb
    ,                         !- Enthalpy at Maximum DryBulb
    ,                         !- Daily WetBulb Temperature Range
    98299.,                   !- Barometric Pressure
    6,                        !- Wind Speed
    180,                      !- Wind Direction
    No,                       !- Rain Indicator
    No,                       !- Snow Indicator
    No,                       !- Daylight Saving Time Indicator
    ASHRAETau,                !- Solar Model Indicator
    ,                         !- Beam Solar Day Schedule Name
    ,                         !- Diffuse Solar Day Schedule Name
    0.416,                    !- ASHRAE Clear Sky Optical Depth for Beam Irradiance taub
    2.18;                     !- ASHRAE Clear Sky Optical Depth for Diffuse Irradiance taud

SizingPeriod:DesignDay,
    MINNEAPOLISAnnHtg99.6CondnsDB,    !- Name
    1,                        !- Month
    21,                       !- Day of Month
    WinterDesignDay,          !- Day Type
    -25.2,                    !- Maximum DryBulb Temperature
    0.0,                      !- Daily DryBulb Temperature Range
    DefaultMultipliers,       !- DryBulb Temperature Range Modifier Type
    ,                         !- DryBulb Temperature Range Modifier Day Schedule Name
    Wetbulb,                  !- Humidity Condition Type
    -25.2,                    !- Wetbulb or DewPoint at Maximum DryBulb
    ,                         !- Humidity Condition Day Schedule Name
    ,                         !- Humidity Ratio at Maximum DryBulb
    ,                         !- Enthalpy at Maximum DryBulb
    ,                         !- Daily WetBulb Temperature Range
    98299.,                   !- Barometric Pressure
    3.8,                      !- Wind Speed
    300,                      !- Wind Direction
    No,                       !- Rain Indicator
    No,                       !- Snow Indicator
    No,                       !- Daylight Saving Time Indicator
    ASHRAEClearSky,           !- Solar Model Indicator
    ,                         !- Beam Solar Day Schedule Name
    ,                         !- Diffuse Solar Day Schedule Name
    ,                         !- ASHRAE Clear Sky Optical Depth for Beam Irradiance taub
    ,                         !- ASHRAE Clear Sky Optical Depth for Diffuse Irradiance taud
    0.0;                      !- Sky Clearness

SizingPeriod:DesignDay,
    MINNEAPOLISAnnHtgWind99.6CondnsWSMCDB,    !- Name
    1,                        !- Month
    21,                       !- Day of Month
    WinterDesignDay,          !- Day Type
    -8.7,                     !- Maximum DryBulb Temperature
    0.0,                      !- Daily DryBulb Temperature Range
    DefaultMultipliers,       !- DryBulb Temperature Range Modifier Type
    ,                         !- DryBulb Temperature Range Modifier Day Schedule Name
    Wetbulb,                  !- Humidity Condition Type
    -8.7,                     !- Wetbulb or DewPoint at Maximum DryBulb
    ,                         !- Humidity Condition Day Schedule Name
    ,                         !- Humidity Ratio at Maximum DryBulb
    ,                         !- Enthalpy at Maximum DryBulb
    ,                         !- Daily WetBulb Temperature Range
    98299.,                   !- Barometric Pressure
    12.3,                     !- Wind Speed
    300,                      !- Wind Direction
    No,                       !- Rain Indicator
    No,                       !- Snow Indicator
    No,                       !- Daylight Saving Time Indicator
    ASHRAEClearSky,           !- Solar Model Indicator
    ,                         !- Beam Solar Day Schedule Name
    ,                         !- Diffuse Solar Day Schedule Name
    ,                         !- ASHRAE Clear Sky Optical Depth for Beam Irradiance taub
    ,                         !- ASHRAE Clear Sky Optical Depth for Diffuse Irradiance taud
    0.0;                      !- Sky Clearness

SizingPeriod:DesignDay,
    MINNEAPOLISAnnHum_n99.6CondnsDPMCDB,    !- Name
    1,                        !- Month
    21,                       !- Day of Month
    WinterDesignDay,          !- Day Type
    -24.6,                    !- Maximum DryBulb Temperature
    0.0,                      !- Daily DryBulb Temperature Range
    DefaultMultipliers,       !- DryBulb Temperature Range Modifier Type
    ,                         !- DryBulb Temperature Range Modifier Day Schedule Name
    Dewpoint,                 !- Humidity Condition Type
    -30.5,                    !- Wetbulb or DewPoint at Maximum DryBulb
    ,                         !- Humidity Condition Day Schedule Name
    ,                         !- Humidity Ratio at Maximum DryBulb
    ,                         !- Enthalpy at Maximum DryBulb
    ,                         !- Daily WetBulb Temperature Range
    98299.,                   !- Barometric Pressure
    3.8,                      !- Wind Speed
    300,                      !- Wind Direction
    No,                       !- Rain Indicator
    No,                       !- Snow Indicator
    No,                       !- Daylight Saving Time Indicator
    ASHRAEClearSky,           !- Solar Model Indicator
    ,                         !- Beam Solar Day Schedule Name
    ,                         !- Diffuse Solar Day Schedule Name
    ,                         !- ASHRAE Clear Sky Optical Depth for Beam Irradiance taub
    ,                         !- ASHRAE Clear Sky Optical Depth for Diffuse Irradiance taud
    0.0;                      !- Sky Clearness

RunPeriod,
    Run Period 1,             !- Name
    1,                        !- Begin Month
    1,                        !- Begin Day of Month
    12,                       !- End Month
    31,                       !- End Day of Month
    Sunday,                   !- Day of Week for Start Day
    No,                       !- Use Weather File Holidays and Special Days
    No,                       !- Use Weather File Daylight Saving Period
    No,                       !- Apply Weekend Holiday Rule
    Yes,                      !- Use Weather File Rain Indicators
    Yes,                      !- Use Weather File Snow Indicators
    1;                        !- Number of Times Runperiod to be Repeated

ScheduleTypeLimits,
    Large-1window Thermostat Schedule Type Limits,    !- Name
    0,                        !- Lower Limit Value
    4,                        !- Upper Limit Value
    DISCRETE;                 !- Numeric Type

ScheduleTypeLimits,
    Temperature 42,           !- Name
    ,                         !- Lower Limit Value
    ,                         !- Upper Limit Value
    Continuous,               !- Numeric Type
    temperature;              !- Unit Type

ScheduleTypeLimits,
    Temperature 35,           !- Name
    ,                         !- Lower Limit Value
    ,                         !- Upper Limit Value
    Continuous,               !- Numeric Type
    temperature;              !- Unit Type

ScheduleTypeLimits,
    Percent,                  !- Name
    0,                        !- Lower Limit Value
    100,                      !- Upper Limit Value
    Continuous,               !- Numeric Type
    percent;                  !- Unit Type

ScheduleTypeLimits,
    ActivityLevel,            !- Name
    0,                        !- Lower Limit Value
    ,                         !- Upper Limit Value
    Continuous,               !- Numeric Type
    activitylevel;            !- Unit Type

ScheduleTypeLimits,
    ActivityLevel 12,         !- Name
    0,                        !- Lower Limit Value
    ,                         !- Upper Limit Value
    Continuous,               !- Numeric Type
    activitylevel;            !- Unit Type

ScheduleTypeLimits,
    ActivityLevel 13,         !- Name
    0,                        !- Lower Limit Value
    ,                         !- Upper Limit Value
    Continuous,               !- Numeric Type
    activitylevel;            !- Unit Type

ScheduleTypeLimits,
    ActivityLevel 5,          !- Name
    0,                        !- Lower Limit Value
    ,                         !- Upper Limit Value
    Continuous,               !- Numeric Type
    activitylevel;            !- Unit Type

ScheduleTypeLimits,
    Fraction,                 !- Name
    0,                        !- Lower Limit Value
    1,                        !- Upper Limit Value
    CONTINUOUS;               !- Numeric Type

ScheduleTypeLimits,
    Fractional,               !- Name
    0,                        !- Lower Limit Value
    1,                        !- Upper Limit Value
    Continuous;               !- Numeric Type

ScheduleTypeLimits,
    Temperature 11,           !- Name
    ,                         !- Lower Limit Value
    ,                         !- Upper Limit Value
    Continuous,               !- Numeric Type
    temperature;              !- Unit Type

ScheduleTypeLimits,
    Temperature 3,            !- Name
    ,                         !- Lower Limit Value
    ,                         !- Upper Limit Value
    Continuous,               !- Numeric Type
    temperature;              !- Unit Type

ScheduleTypeLimits,
    Temperature 36,           !- Name
    ,                         !- Lower Limit Value
    ,                         !- Upper Limit Value
    Continuous,               !- Numeric Type
    temperature;              !- Unit Type

ScheduleTypeLimits,
    Temperature 37,           !- Name
    ,                         !- Lower Limit Value
    ,                         !- Upper Limit Value
    Continuous,               !- Numeric Type
    temperature;              !- Unit Type

ScheduleTypeLimits,
    Temperature 4,            !- Name
    ,                         !- Lower Limit Value
    ,                         !- Upper Limit Value
    Continuous,               !- Numeric Type
    temperature;              !- Unit Type

ScheduleTypeLimits,
    Temperature 5,            !- Name
    ,                         !- Lower Limit Value
    ,                         !- Upper Limit Value
    Continuous,               !- Numeric Type
    temperature;              !- Unit Type

Schedule:Day:Interval,
    SmallHotel HtgSetp Default Schedule,    !- Name
    Temperature 42,           !- Schedule Type Limits Name
    No,                       !- Interpolate to Timestep
    24:00,                    !- Time 1
    21;                       !- Value Until Time 1

Schedule:Day:Interval,
    SmallHotel HtgSetp Summer Design Day,    !- Name
    Temperature 42,           !- Schedule Type Limits Name
    No,                       !- Interpolate to Timestep
    24:00,                    !- Time 1
    21;                       !- Value Until Time 1

Schedule:Day:Interval,
    SmallHotel HtgSetp Winter Design Day,    !- Name
    Temperature 42,           !- Schedule Type Limits Name
    No,                       !- Interpolate to Timestep
    24:00,                    !- Time 1
    21;                       !- Value Until Time 1

Schedule:Day:Interval,
    SmallHotel ClgSetp Default Schedule,    !- Name
    Temperature 35,           !- Schedule Type Limits Name
    No,                       !- Interpolate to Timestep
    24:00,                    !- Time 1
    24;                       !- Value Until Time 1

Schedule:Day:Interval,
    SmallHotel ClgSetp Summer Design Day,    !- Name
    Temperature 35,           !- Schedule Type Limits Name
    No,                       !- Interpolate to Timestep
    24:00,                    !- Time 1
    24;                       !- Value Until Time 1

Schedule:Day:Interval,
    SmallHotel ClgSetp Winter Design Day,    !- Name
    Temperature 35,           !- Schedule Type Limits Name
    No,                       !- Interpolate to Timestep
    24:00,                    !- Time 1
    24;                       !- Value Until Time 1

Schedule:Day:Interval,
    Schedule Day 443,         !- Name
    Percent,                  !- Schedule Type Limits Name
    No,                       !- Interpolate to Timestep
    24:00,                    !- Time 1
    50;                       !- Value Until Time 1

Schedule:Day:Interval,
    Large Office ClgSetp Default Schedule,    !- Name
    Temperature 5,            !- Schedule Type Limits Name
    No,                       !- Interpolate to Timestep
    06:00,                    !- Time 1
    26.7,                     !- Value Until Time 1
    22:00,                    !- Time 2
    24,                       !- Value Until Time 2
    24:00,                    !- Time 3
    26.7;                     !- Value Until Time 3

Schedule:Day:Interval,
    Large Office ClgSetp Rule 1 Day Schedule,    !- Name
    Temperature 5,            !- Schedule Type Limits Name
    No,                       !- Interpolate to Timestep
    24:00,                    !- Time 1
    26.7;                     !- Value Until Time 1

Schedule:Day:Interval,
    Large Office ClgSetp Rule 2 Day Schedule,    !- Name
    Temperature 5,            !- Schedule Type Limits Name
    No,                       !- Interpolate to Timestep
    06:00,                    !- Time 1
    26.7,                     !- Value Until Time 1
    18:00,                    !- Time 2
    24,                       !- Value Until Time 2
    24:00,                    !- Time 3
    26.7;                     !- Value Until Time 3

Schedule:Day:Interval,
    Large Office ClgSetp Summer Design Day,    !- Name
    Temperature 5,            !- Schedule Type Limits Name
    No,                       !- Interpolate to Timestep
    06:00,                    !- Time 1
    26.7,                     !- Value Until Time 1
    22:00,                    !- Time 2
    24,                       !- Value Until Time 2
    24:00,                    !- Time 3
    26.7;                     !- Value Until Time 3

Schedule:Day:Interval,
    Large Office ClgSetp Winter Design Day,    !- Name
    Temperature 5,            !- Schedule Type Limits Name
    No,                       !- Interpolate to Timestep
    24:00,                    !- Time 1
    26.7;                     !- Value Until Time 1

Schedule:Day:Interval,
    Large Office HtgSetp Default Schedule,    !- Name
    Temperature 3,            !- Schedule Type Limits Name
    No,                       !- Interpolate to Timestep
    06:00,                    !- Time 1
    15.6,                     !- Value Until Time 1
    22:00,                    !- Time 2
    21,                       !- Value Until Time 2
    24:00,                    !- Time 3
    15.6;                     !- Value Until Time 3

Schedule:Day:Interval,
    Large Office HtgSetp Rule 1 Day Schedule,    !- Name
    Temperature 3,            !- Schedule Type Limits Name
    No,                       !- Interpolate to Timestep
    24:00,                    !- Time 1
    15.6;                     !- Value Until Time 1

Schedule:Day:Interval,
    Large Office HtgSetp Rule 2 Day Schedule,    !- Name
    Temperature 3,            !- Schedule Type Limits Name
    No,                       !- Interpolate to Timestep
    06:00,                    !- Time 1
    15.6,                     !- Value Until Time 1
    18:00,                    !- Time 2
    21,                       !- Value Until Time 2
    24:00,                    !- Time 3
    15.6;                     !- Value Until Time 3

Schedule:Day:Interval,
    Large Office HtgSetp Summer Design Day,    !- Name
    Temperature 3,            !- Schedule Type Limits Name
    No,                       !- Interpolate to Timestep
    24:00,                    !- Time 1
    15.6;                     !- Value Until Time 1

Schedule:Day:Interval,
    Large Office HtgSetp Winter Design Day,    !- Name
    Temperature 3,            !- Schedule Type Limits Name
    No,                       !- Interpolate to Timestep
    24:00,                    !- Time 1
    21;                       !- Value Until Time 1

Schedule:Day:Interval,
    Medium Office ClgSetp Default Schedule,    !- Name
    Temperature 37,           !- Schedule Type Limits Name
    No,                       !- Interpolate to Timestep
    06:00,                    !- Time 1
    26.7,                     !- Value Until Time 1
    22:00,                    !- Time 2
    24,                       !- Value Until Time 2
    24:00,                    !- Time 3
    26.7;                     !- Value Until Time 3

Schedule:Day:Interval,
    Medium Office ClgSetp Rule 1 Day Schedule,    !- Name
    Temperature 37,           !- Schedule Type Limits Name
    No,                       !- Interpolate to Timestep
    24:00,                    !- Time 1
    26.7;                     !- Value Until Time 1

Schedule:Day:Interval,
    Medium Office ClgSetp Rule 2 Day Schedule,    !- Name
    Temperature 37,           !- Schedule Type Limits Name
    No,                       !- Interpolate to Timestep
    06:00,                    !- Time 1
    26.7,                     !- Value Until Time 1
    18:00,                    !- Time 2
    24,                       !- Value Until Time 2
    24:00,                    !- Time 3
    26.7;                     !- Value Until Time 3

Schedule:Day:Interval,
    Medium Office ClgSetp Summer Design Day,    !- Name
    Temperature 37,           !- Schedule Type Limits Name
    No,                       !- Interpolate to Timestep
    06:00,                    !- Time 1
    26.7,                     !- Value Until Time 1
    22:00,                    !- Time 2
    24,                       !- Value Until Time 2
    24:00,                    !- Time 3
    26.7;                     !- Value Until Time 3

Schedule:Day:Interval,
    Medium Office ClgSetp Winter Design Day,    !- Name
    Temperature 37,           !- Schedule Type Limits Name
    No,                       !- Interpolate to Timestep
    24:00,                    !- Time 1
    26.7;                     !- Value Until Time 1

Schedule:Day:Interval,
    Medium Office HtgSetp Default Schedule,    !- Name
    Temperature 36,           !- Schedule Type Limits Name
    No,                       !- Interpolate to Timestep
    06:00,                    !- Time 1
    15.6,                     !- Value Until Time 1
    22:00,                    !- Time 2
    21,                       !- Value Until Time 2
    24:00,                    !- Time 3
    15.6;                     !- Value Until Time 3

Schedule:Day:Interval,
    Medium Office HtgSetp Rule 1 Day Schedule,    !- Name
    Temperature 36,           !- Schedule Type Limits Name
    No,                       !- Interpolate to Timestep
    24:00,                    !- Time 1
    15.6;                     !- Value Until Time 1

Schedule:Day:Interval,
    Medium Office HtgSetp Rule 2 Day Schedule,    !- Name
    Temperature 36,           !- Schedule Type Limits Name
    No,                       !- Interpolate to Timestep
    06:00,                    !- Time 1
    15.6,                     !- Value Until Time 1
    18:00,                    !- Time 2
    21,                       !- Value Until Time 2
    24:00,                    !- Time 3
    15.6;                     !- Value Until Time 3

Schedule:Day:Interval,
    Medium Office HtgSetp Summer Design Day,    !- Name
    Temperature 36,           !- Schedule Type Limits Name
    No,                       !- Interpolate to Timestep
    24:00,                    !- Time 1
    15.6;                     !- Value Until Time 1

Schedule:Day:Interval,
    Medium Office HtgSetp Winter Design Day,    !- Name
    Temperature 36,           !- Schedule Type Limits Name
    No,                       !- Interpolate to Timestep
    24:00,                    !- Time 1
    21;                       !- Value Until Time 1

Schedule:Day:Interval,
    Small Office ClgSetp Default Schedule,    !- Name
    Temperature 4,            !- Schedule Type Limits Name
    No,                       !- Interpolate to Timestep
    06:00,                    !- Time 1
    26.7,                     !- Value Until Time 1
    22:00,                    !- Time 2
    24,                       !- Value Until Time 2
    24:00,                    !- Time 3
    26.7;                     !- Value Until Time 3

Schedule:Day:Interval,
    Small Office ClgSetp Rule 1 Day Schedule,    !- Name
    Temperature 4,            !- Schedule Type Limits Name
    No,                       !- Interpolate to Timestep
    24:00,                    !- Time 1
    26.7;                     !- Value Until Time 1

Schedule:Day:Interval,
    Small Office ClgSetp Rule 2 Day Schedule,    !- Name
    Temperature 4,            !- Schedule Type Limits Name
    No,                       !- Interpolate to Timestep
    06:00,                    !- Time 1
    26.7,                     !- Value Until Time 1
    18:00,                    !- Time 2
    24,                       !- Value Until Time 2
    24:00,                    !- Time 3
    26.7;                     !- Value Until Time 3

Schedule:Day:Interval,
    Small Office ClgSetp Summer Design Day,    !- Name
    Temperature 4,            !- Schedule Type Limits Name
    No,                       !- Interpolate to Timestep
    06:00,                    !- Time 1
    26.7,                     !- Value Until Time 1
    22:00,                    !- Time 2
    24,                       !- Value Until Time 2
    24:00,                    !- Time 3
    26.7;                     !- Value Until Time 3

Schedule:Day:Interval,
    Small Office ClgSetp Winter Design Day,    !- Name
    Temperature 4,            !- Schedule Type Limits Name
    No,                       !- Interpolate to Timestep
    24:00,                    !- Time 1
    26.7;                     !- Value Until Time 1

Schedule:Day:Interval,
    Small Office HtgSetp Default Schedule,    !- Name
    Temperature 11,           !- Schedule Type Limits Name
    No,                       !- Interpolate to Timestep
    06:00,                    !- Time 1
    15.6,                     !- Value Until Time 1
    22:00,                    !- Time 2
    21,                       !- Value Until Time 2
    24:00,                    !- Time 3
    15.6;                     !- Value Until Time 3

Schedule:Day:Interval,
    Small Office HtgSetp Rule 1 Day Schedule,    !- Name
    Temperature 11,           !- Schedule Type Limits Name
    No,                       !- Interpolate to Timestep
    24:00,                    !- Time 1
    15.6;                     !- Value Until Time 1

Schedule:Day:Interval,
    Small Office HtgSetp Rule 2 Day Schedule,    !- Name
    Temperature 11,           !- Schedule Type Limits Name
    No,                       !- Interpolate to Timestep
    06:00,                    !- Time 1
    15.6,                     !- Value Until Time 1
    18:00,                    !- Time 2
    21,                       !- Value Until Time 2
    24:00,                    !- Time 3
    15.6;                     !- Value Until Time 3

Schedule:Day:Interval,
    Small Office HtgSetp Summer Design Day,    !- Name